Circuit: * C:\users\facu\Documents\Mi_repositorio\TC2\Trabajo_semanal3\simulacion\6_circuitoBW.asc

Ignoring empty pin current: Ix(u1:1)
Ignoring empty pin current: Ix(u1:2)
Ignoring empty pin current: Ix(u2:1)
Ignoring empty pin current: Ix(u2:2)

Date: Sun May 07 22:16:06 2023
Total elapsed time: 0.111 seconds.

tnom = 27
temp = 27
method = trap
totiter = 0
traniter = 0
tranpoints = 0
accept = 0
rejected = 0
matrix size = 7
fillins = 0
solver = Normal

