Circuit: * C:\users\facu\Documents\Mi_repositorio\TC2\Trabajo_semanal3\simulacion\4_circuitoC100nF\circuito.asc

Number of points per decade reduced from 100000 to 21253.
Ignoring empty pin current: Ix(u1:1)
Ignoring empty pin current: Ix(u1:2)

Date: Tue May 09 18:43:43 2023
Total elapsed time: 0.304 seconds.

tnom = 27
temp = 27
method = trap
totiter = 0
traniter = 0
tranpoints = 0
accept = 0
rejected = 0
matrix size = 5
fillins = 0
solver = Normal

