Circuit: * C:\users\facu\Documents\Mi_repositorio\TC2\Trabajo_semanal1\Simulacion\circuito.asc

Direct Newton iteration for .op point succeeded.

Date: Thu Apr 06 22:28:50 2023
Total elapsed time: 0.055 seconds.

tnom = 27
temp = 27
method = trap
totiter = 3
traniter = 0
tranpoints = 0
accept = 0
rejected = 0
matrix size = 7
fillins = 1
solver = Normal
Matrix Compiler1:      15 opcodes
Matrix Compiler2: 515 bytes object code size
