Circuit: * C:\users\facu\Documents\Mi_repositorio\TC2\Trabajo_semanal4\sim\circuito_desnorm.asc

Number of points per decade reduced from 100000 to 15393.
Ignoring empty pin current: Ix(u1:1)
Ignoring empty pin current: Ix(u1:2)
Ignoring empty pin current: Ix(u2:1)
Ignoring empty pin current: Ix(u2:2)
Ignoring empty pin current: Ix(u3:1)
Ignoring empty pin current: Ix(u3:2)

Date: Thu May 25 01:00:28 2023
Total elapsed time: 0.364 seconds.

tnom = 27
temp = 27
method = trap
totiter = 0
traniter = 0
tranpoints = 0
accept = 0
rejected = 0
matrix size = 10
fillins = 11
solver = Normal

