Circuit: * Z:\home\facu\Documentos\Mi_repositorio\TC2\Trabajo_semanal5\sim\bloque1.asc


Date: Sun Jun 18 16:13:40 2023
Total elapsed time: 0.101 seconds.

tnom = 27
temp = 27
method = trap
totiter = 0
traniter = 0
tranpoints = 0
accept = 0
rejected = 0
matrix size = 3
fillins = 1
solver = Normal

