Circuit: * Z:\home\facu\Documentos\Mi_repositorio\TC2\Trabajo_semanal5\sim\circuitoAcopladoActivado.asc

Ignoring empty pin current: Ix(u4:1)
Ignoring empty pin current: Ix(u4:2)
Ignoring empty pin current: Ix(u5:1)
Ignoring empty pin current: Ix(u5:2)
Ignoring empty pin current: Ix(u6:1)
Ignoring empty pin current: Ix(u6:2)
Ignoring empty pin current: Ix(u7:1)
Ignoring empty pin current: Ix(u7:2)
Ignoring empty pin current: Ix(u10:1)
Ignoring empty pin current: Ix(u10:2)
Ignoring empty pin current: Ix(u11:1)
Ignoring empty pin current: Ix(u11:2)
Ignoring empty pin current: Ix(u1:1)
Ignoring empty pin current: Ix(u1:2)

Date: Wed Jun 21 20:58:52 2023
Total elapsed time: 0.655 seconds.

tnom = 27
temp = 27
method = trap
totiter = 0
traniter = 0
tranpoints = 0
accept = 0
rejected = 0
matrix size = 19
fillins = 27
solver = Normal

