Circuit: * Z:\home\facu\Documentos\Simulaciones_LTspice\TS5\ejercicio4.asc

Number of points per decade reduced from 100000 to 12685.
Ignoring empty pin current: Ix(u1:1)
Ignoring empty pin current: Ix(u1:2)
Ignoring empty pin current: Ix(u2:1)
Ignoring empty pin current: Ix(u2:2)
Ignoring empty pin current: Ix(u3:1)
Ignoring empty pin current: Ix(u3:2)

Date: Sun Jun 11 19:39:05 2023
Total elapsed time: 0.327 seconds.

tnom = 27
temp = 27
method = trap
totiter = 0
traniter = 0
tranpoints = 0
accept = 0
rejected = 0
matrix size = 9
fillins = 1
solver = Normal

