Circuit: * C:\users\facu\Documents\Mi_repositorio\Trabajo_semanal10\sim\Cauer2.asc

Number of points per decade reduced from 100000 to 12685.

Date: Wed Oct 18 20:08:15 2023
Total elapsed time: 0.267 seconds.

tnom = 27
temp = 27
method = trap
totiter = 0
traniter = 0
tranpoints = 0
accept = 0
rejected = 0
matrix size = 7
fillins = 2
solver = Normal

