Circuit: * C:\users\facu\Documents\Mi_repositorio\Trabajo_semanal10\sim\Draft1.asc

Number of points per decade reduced from 100000 to 12685.
WARNING: Node N002 is floating.


Date: Wed Oct 18 22:56:07 2023
Total elapsed time: 0.175 seconds.

tnom = 27
temp = 27
method = trap
totiter = 0
traniter = 0
tranpoints = 0
accept = 0
rejected = 0
matrix size = 5
fillins = 1
solver = Normal

