Circuit: * C:\users\facu\Documents\Mi_repositorio\Trabajo_semanal10\sim\remParcial.asc

Number of points per decade reduced from 100000 to 63652.
WARNING: Node N002 is floating.


Date: Wed Oct 18 22:59:41 2023
Total elapsed time: 0.196 seconds.

tnom = 27
temp = 27
method = trap
totiter = 0
traniter = 0
tranpoints = 0
accept = 0
rejected = 0
matrix size = 5
fillins = 1
solver = Normal

