Circuit: * Z:\home\facu\Documentos\Mi_repositorio\Trabajo_semanal7\sim\Ejercicio2.asc


Date: Fri Aug 25 00:17:07 2023
Total elapsed time: 0.131 seconds.

tnom = 27
temp = 27
method = trap
totiter = 0
traniter = 0
tranpoints = 0
accept = 0
rejected = 0
matrix size = 4
fillins = 0
solver = Normal

