Circuit: * Z:\home\facu\Documentos\Mi_repositorio\TrabajoPractico_laboratorio2\lpf.asc


Date: Sun Nov 12 16:49:51 2023
Total elapsed time: 0.041 seconds.

tnom = 27
temp = 27
method = trap
totiter = 0
traniter = 0
tranpoints = 0
accept = 0
rejected = 0
matrix size = 3
fillins = 0
solver = Normal

