Circuit: * Z:\home\facu\Documentos\Mi_repositorio\TC2\Trabajo_semanal1\Simulacion\montecarlo.asc

Ignoring empty pin current: Ix(u1:1)
Ignoring empty pin current: Ix(u1:2)
.step r1=0.95 r2=0.95
.step r1=1 r2=0.95
.step r1=1.05 r2=0.95
.step r1=0.95 r2=1
.step r1=1 r2=1
.step r1=1.05 r2=1
.step r1=0.95 r2=1.05
.step r1=1 r2=1.05
.step r1=1.05 r2=1.05

Date: Sat Jul 01 20:23:01 2023
Total elapsed time: 0.175 seconds.

tnom = 27
temp = 27
method = trap
totiter = 0
traniter = 0
tranpoints = 0
accept = 0
rejected = 0
matrix size = 5
fillins = 2
solver = Normal

