Circuit: * Z:\home\facu\Documentos\Mi_repositorio\TC2\Trabajo_semanal3\simulacion\5_circuitoFDNR\circuito.asc

Number of points per decade reduced from 100000 to 8077.
Ignoring empty pin current: Ix(u1:1)
Ignoring empty pin current: Ix(u1:2)
Ignoring empty pin current: Ix(u2:1)
Ignoring empty pin current: Ix(u2:2)
Ignoring empty pin current: Ix(u3:1)
Ignoring empty pin current: Ix(u3:2)

Date: Wed May 10 19:51:47 2023
Total elapsed time: 0.347 seconds.

tnom = 27
temp = 27
method = trap
totiter = 0
traniter = 0
tranpoints = 0
accept = 0
rejected = 0
matrix size = 9
fillins = 8
solver = Normal

