Circuit: * C:\users\facu\Documents\Mi_repositorio\TC2\Trabajo_semanal2\simulacion\circuitoButterworth\simulacion.asc

Ignoring empty pin current: Ix(u1:1)
Ignoring empty pin current: Ix(u1:2)
Ignoring empty pin current: Ix(u2:1)
Ignoring empty pin current: Ix(u2:2)
Ignoring empty pin current: Ix(u3:1)
Ignoring empty pin current: Ix(u3:2)

Date: Sun Apr 23 14:58:23 2023
Total elapsed time: 0.061 seconds.

tnom = 27
temp = 27
method = trap
totiter = 0
traniter = 0
tranpoints = 0
accept = 0
rejected = 0
matrix size = 8
fillins = 7
solver = Normal

