Circuit: * Z:\home\facu\Documentos\Mi_repositorio\Trabajo_semanal14\sim\desnorm.asc

Number of points per decade reduced from 100000 to 10454.

Date: Sun Dec 17 01:57:04 2023
Total elapsed time: 0.584 seconds.

tnom = 27
temp = 27
method = trap
totiter = 0
traniter = 0
tranpoints = 0
accept = 0
rejected = 0
matrix size = 3
fillins = 0
solver = Normal

