Circuit: * Z:\home\facu\Documentos\Mi_repositorio\Trabajo_semanal14\sim\s11-s12.asc

Number of points per decade reduced from 100000 to 12685.

Date: Sun Dec 17 02:02:39 2023
Total elapsed time: 0.658 seconds.

tnom = 27
temp = 27
method = trap
totiter = 0
traniter = 0
tranpoints = 0
accept = 0
rejected = 0
matrix size = 3
fillins = 0
solver = Normal

