Circuit: * Z:\home\facu\Documentos\Mi_repositorio\TC2\Trabajo_semanal3\simulacion\1_circuitoNormalizado\circuito.asc

Number of points per decade reduced from 10000 to 8790.
Ignoring empty pin current: Ix(u1:1)
Ignoring empty pin current: Ix(u1:2)
Ignoring empty pin current: Ix(u2:1)
Ignoring empty pin current: Ix(u2:2)
Ignoring empty pin current: Ix(u3:1)
Ignoring empty pin current: Ix(u3:2)
Ignoring empty pin current: Ix(u4:1)
Ignoring empty pin current: Ix(u4:2)

Date: Sun May 07 22:59:31 2023
Total elapsed time: 0.273 seconds.

tnom = 27
temp = 27
method = trap
totiter = 0
traniter = 0
tranpoints = 0
accept = 0
rejected = 0
matrix size = 6
fillins = 3
solver = Normal

