Circuit: * Z:\home\facu\Documentos\Mi_repositorio\TC2\Trabajo_semanal3\simulacion\1_circuitoNormalizado\circuito.asc

Number of points per decade reduced from 100000 to 8077.
Ignoring empty pin current: Ix(u1:1)
Ignoring empty pin current: Ix(u1:2)

Date: Tue May 09 23:46:41 2023
Total elapsed time: 0.152 seconds.

tnom = 27
temp = 27
method = trap
totiter = 0
traniter = 0
tranpoints = 0
accept = 0
rejected = 0
matrix size = 5
fillins = 0
solver = Normal

