Circuit: * Z:\home\facu\Documentos\Mi_repositorio\TC2\1erParcial\sim\GICdesnorm.asc

Number of points per decade reduced from 100000 to 49171.
Ignoring empty pin current: Ix(u1:1)
Ignoring empty pin current: Ix(u1:2)
Ignoring empty pin current: Ix(u2:1)
Ignoring empty pin current: Ix(u2:2)

Date: Mon Jul 10 21:50:09 2023
Total elapsed time: 0.276 seconds.

tnom = 27
temp = 27
method = trap
totiter = 0
traniter = 0
tranpoints = 0
accept = 0
rejected = 0
matrix size = 7
fillins = 6
solver = Normal

